examples/feeders/1_SE001_1/008_segmentoBT.dss
New Line.SBT_10003 phases=4 bus1=BT603901.1.2.3.4 bus2=BT109671.1.2.3.4 linecode=73_4 length=0.05135 units=km
New Line.SBT_11356 phases=4 bus1=BT242401.1.2.3.4 bus2=BT603901.1.2.3.4 linecode=75_4 length=0.02202 units=km
New Line.SBT_13621 phases=4 bus1=BT294681.1.2.3.4 bus2=BT562441.1.2.3.4 linecode=73_4 length=0.0199 units=km
New Line.SBT_13622 phases=4 bus1=BT562441.1.2.3.4 bus2=BT562411.1.2.3.4 linecode=74_4 length=0.03108 units=km
New Line.SBT_13623 phases=2 bus1=BT562411.1.4 bus2=BT562421.1.4 linecode=62_2 length=0.027 units=km
New Line.SBT_13990 phases=4 bus1=BT242391.1.2.3.4 bus2=BT588501.1.2.3.4 linecode=73_4 length=0.02729 units=km
New Line.SBT_14839 phases=4 bus1=BT650251.1.2.3.4 bus2=BT596341.1.2.3.4 linecode=73_4 length=0.02603 units=km
New Line.SBT_14843 phases=4 bus1=BT596341.1.2.3.4 bus2=BT585411.1.2.3.4 linecode=73_4 length=0.03722 units=km
New Line.SBT_15742 phases=4 bus1=BT490481.1.2.3.4 bus2=BT661961.1.2.3.4 linecode=53_4 length=0.03948 units=km
New Line.SBT_15793 phases=4 bus1=BT490481.1.2.3.4 bus2=BT445251.1.2.3.4 linecode=75_4 length=0.00726 units=km
New Line.SBT_15974 phases=4 bus1=BT661681.1.2.3.4 bus2=BT703951.1.2.3.4 linecode=74_4 length=0.02347 units=km
New Line.SBT_15975 phases=4 bus1=BT703961.1.2.3.4 bus2=BT703971.1.2.3.4 linecode=74_4 length=0.039 units=km
New Line.SBT_1839 phases=4 bus1=BT242381.1.2.3.4 bus2=BT242411.1.2.3.4 linecode=74_4 length=0.04732 units=km
New Line.SBT_19686 phases=4 bus1=BT242381.1.2.3.4 bus2=BT242391.1.2.3.4 linecode=73_4 length=0.04031 units=km
New Line.SBT_19778 phases=4 bus1=BT562441.1.2.3.4 bus2=BT294611.1.2.3.4 linecode=73_4 length=0.0297 units=km
New Line.SBT_19779 phases=4 bus1=BT445251.1.2.3.4 bus2=BT298341.1.2.3.4 linecode=75_4 length=0.04754 units=km
New Line.SBT_19844 phases=4 bus1=BT585411.1.2.3.4 bus2=BT375721.1.2.3.4 linecode=73_4 length=0.02915 units=km
New Line.SBT_20006 phases=4 bus1=BT375721.1.2.3.4 bus2=BT376081.1.2.3.4 linecode=73_4 length=0.044 units=km
New Line.SBT_2038 phases=4 bus1=BT603901.1.2.3.4 bus2=BT242371.1.2.3.4 linecode=75_4 length=0.012 units=km
New Line.SBT_2039 phases=4 bus1=BT242371.1.2.3.4 bus2=BT242381.1.2.3.4 linecode=73_4 length=0.03397 units=km
New Line.SBT_21821 phases=4 bus1=BT376081.1.2.3.4 bus2=BT661681.1.2.3.4 linecode=73_4 length=0.04319 units=km
New Line.SBT_2196 phases=4 bus1=ET1_1211.1.2.3.4 bus2=BT298291.1.2.3.4 linecode=75_4 length=0.05331 units=km
New Line.SBT_2197 phases=4 bus1=BT298291.1.2.3.4 bus2=BT294681.1.2.3.4 linecode=73_4 length=0.0676 units=km
New Line.SBT_2198 phases=4 bus1=ET1_1211.1.2.3.4 bus2=BT490481.1.2.3.4 linecode=75_4 length=0.03847 units=km
New Line.SBT_2199 phases=4 bus1=BT490481.1.2.3.4 bus2=BT298311.1.2.3.4 linecode=53_4 length=0.01137 units=km
New Line.SBT_2201 phases=4 bus1=BT298341.1.2.3.4 bus2=BT242401.1.2.3.4 linecode=75_4 length=0.03008 units=km
New Line.SBT_23676 phases=4 bus1=BT650251.1.2.3.4 bus2=BT294621.1.2.3.4 linecode=73_4 length=0.01381 units=km
New Line.SBT_2602 phases=4 bus1=BT650251.1.2.3.4 bus2=BT351471.1.2.3.4 linecode=73_4 length=0.00955 units=km
New Line.SBT_26239 phases=4 bus1=BT562441.1.2.3.4 bus2=BT562371.1.2.3.4 linecode=74_4 length=0.02594 units=km
New Line.SBT_27364 phases=4 bus1=BT294611.1.2.3.4 bus2=BT650251.1.2.3.4 linecode=73_4 length=0.03831 units=km
New Line.SBT_27541 phases=4 bus1=BT703951.1.2.3.4 bus2=BT703961.1.2.3.4 linecode=74_4 length=0.03601 units=km
New Line.SBT_27542 phases=4 bus1=BT703971.1.2.3.4 bus2=BT703981.1.2.3.4 linecode=74_4 length=0.037 units=km
New Line.SBT_28828 phases=2 bus1=BT562421.1.4 bus2=BT562431.1.4 linecode=62_2 length=0.02227 units=km
New Line.SBT_34690 phases=3 bus1=BT804471.1.2.4 bus2=BT583012.1.2.4 linecode=91_3 length=0.09708 units=km
New Line.SBT_34691 phases=2 bus1=BT804471.1.4 bus2=BT603462.1.4 linecode=62_2 length=0.11838 units=km
New Line.SBT_34692 phases=4 bus1=ET1_1273.1.2.3.4 bus2=BT804471.1.2.3.4 linecode=73_4 length=0.10648 units=km
New Line.SBT_34693 phases=4 bus1=BT804471.1.2.3.4 bus2=BT804481.1.2.3.4 linecode=73_4 length=0.11149 units=km
New Line.SBT_34694 phases=4 bus1=BT804481.1.2.3.4 bus2=BT804491.1.2.3.4 linecode=73_4 length=0.02922 units=km
New Line.SBT_3529 phases=3 bus1=BT229821.1.2.4 bus2=BT229841.1.2.4 linecode=59_3 length=0.04272 units=km
New Line.SBT_3531 phases=2 bus1=BT690371.2.4 bus2=BT239011.2.4 linecode=60_2 length=0.0853 units=km
New Line.SBT_3532 phases=2 bus1=BT239011.2.4 bus2=BT239021.2.4 linecode=60_2 length=0.05197 units=km
New Line.SBT_8796 phases=4 bus1=BT260341.1.2.3.4 bus2=BT550731.1.2.3.4 linecode=97_4 length=0.0681 units=km
New Line.SBT_28324 phases=2 bus1=BT229841.2.4 bus2=BT690371.2.4 linecode=60_2 length=0.07431 units=km
New Line.SBT_26987 phases=4 bus1=BT260351.1.2.3.4 bus2=BT662021.1.2.3.4 linecode=97_4 length=0.06217 units=km
New Line.SBT_26280 phases=4 bus1=BT260341.1.2.3.4 bus2=BT260351.1.2.3.4 linecode=97_4 length=0.05434 units=km
New Line.SBT_2404 phases=4 bus1=ET1_1273.1.2.3.4 bus2=BT239041.1.2.3.4 linecode=97_4 length=0.09932 units=km
New Line.SBT_2228 phases=4 bus1=BT239041.1.2.3.4 bus2=BT239051.1.2.3.4 linecode=97_4 length=0.06694 units=km
New Line.SBT_2229 phases=3 bus1=ET1_1273.1.2.4 bus2=BT229811.1.2.4 linecode=59_3 length=0.15182 units=km
New Line.SBT_2231 phases=3 bus1=BT229811.1.2.4 bus2=BT229821.1.2.4 linecode=59_3 length=0.05471 units=km
New Line.SBT_20521 phases=2 bus1=BT229821.1.4 bus2=BT229831.1.4 linecode=60_2 length=0.02802 units=km
New Line.SBT_20522 phases=2 bus1=BT229841.2.4 bus2=BT229851.2.4 linecode=60_2 length=0.02983 units=km
New Line.SBT_20205 phases=2 bus1=BT239021.2.4 bus2=BT239031.2.4 linecode=60_2 length=0.09925 units=km
New Line.SBT_12864 phases=4 bus1=BT239051.1.2.3.4 bus2=BT260341.1.2.3.4 linecode=97_4 length=0.16435 units=km
New Line.SBT_12989 phases=2 bus1=ET1_1273.1.4 bus2=BT621541.1.4 linecode=60_2 length=0.11597 units=km
New Line.SBT_14136 phases=2 bus1=BT258431.1.4 bus2=BT577581.1.4 linecode=62_2 length=0.04243 units=km
New Line.SBT_15730 phases=4 bus1=ET1_1300.1.2.3.4 bus2=BT258431.1.2.3.4 linecode=75_4 length=0.01746 units=km
New Line.SBT_19711 phases=4 bus1=BT258441.1.2.3.4 bus2=BT258451.1.2.3.4 linecode=73_4 length=0.04657 units=km
New Line.SBT_19591 phases=4 bus1=ET1_1300.1.2.3.4 bus2=BT258441.1.2.3.4 linecode=73_4 length=0.05822 units=km
New Line.SBT_1876 phases=4 bus1=BT258431.1.2.3.4 bus2=BT258422.1.2.3.4 linecode=75_4 length=0.05204 units=km
New Line.SBT_1882 phases=4 bus1=BT258451.1.2.3.4 bus2=BT258462.1.2.3.4 linecode=73_4 length=0.04833 units=km
New Line.SBT_1888 phases=4 bus1=BT225901.1.2.3.4 bus2=BT225911.1.2.3.4 linecode=97_4 length=0.06629 units=km
New Line.SBT_1895 phases=4 bus1=BT225911.1.2.3.4 bus2=BT225921.1.2.3.4 linecode=97_4 length=0.08 units=km
New Line.SBT_1898 phases=4 bus1=BT225951.1.2.3.4 bus2=BT225961.1.2.3.4 linecode=97_4 length=0.05471 units=km
New Line.SBT_19603 phases=4 bus1=BT225961.1.2.3.4 bus2=BT375621.1.2.3.4 linecode=97_4 length=0.04249 units=km
New Line.SBT_36303 phases=4 bus1=BT225932.1.2.3.4 bus2=BT225901.1.2.3.4 linecode=97_4 length=0.07145 units=km
New Line.SBT_36304 phases=4 bus1=BT816981.1.2.3.4 bus2=BT225932.1.2.3.4 linecode=97_4 length=0.02801 units=km
New Line.SBT_36305 phases=4 bus1=ET1_1338.1.2.3.4 bus2=BT225942.1.2.3.4 linecode=74_4 length=0.03889 units=km
New Line.SBT_36306 phases=4 bus1=BT225942.1.2.3.4 bus2=BT225951.1.2.3.4 linecode=97_4 length=0.06984 units=km
New Line.SBT_36310 phases=4 bus1=BT225942.1.2.3.4 bus2=BT816981.1.2.3.4 linecode=97_4 length=0.05015 units=km
New Line.SBT_32878 phases=4 bus1=BT262091.1.2.3.4 bus2=BT250761.1.2.3.4 linecode=74_4 length=0.0128 units=km
New Line.SBT_32879 phases=4 bus1=ET1_1520.1.2.3.4 bus2=BT262091.1.2.3.4 linecode=74_4 length=0.0197 units=km
New Line.SBT_32880 phases=4 bus1=BT242441.1.2.3.4 bus2=BT262461.1.2.3.4 linecode=74_4 length=0.05129 units=km
New Line.SBT_32881 phases=4 bus1=BT262461.1.2.3.4 bus2=BT262471.1.2.3.4 linecode=74_4 length=0.02663 units=km
New Line.SBT_32882 phases=4 bus1=BT262091.1.2.3.4 bus2=BT377351.1.2.3.4 linecode=74_4 length=0.01042 units=km
New Line.SBT_32883 phases=4 bus1=BT668811.1.2.3.4 bus2=BT377361.1.2.3.4 linecode=74_4 length=0.03611 units=km
New Line.SBT_32884 phases=4 bus1=BT668821.1.2.3.4 bus2=BT668811.1.2.3.4 linecode=74_4 length=0.01968 units=km
New Line.SBT_32885 phases=4 bus1=BT377351.1.2.3.4 bus2=BT668821.1.2.3.4 linecode=74_4 length=0.01757 units=km
New Line.SBT_32876 phases=4 bus1=ET1_1520.1.2.3.4 bus2=BT242441.1.2.3.4 linecode=74_4 length=0.03108 units=km
New Line.SBT_32887 phases=4 bus1=BT262091.1.2.3.4 bus2=BT785932.1.2.3.4 linecode=74_4 length=0.02207 units=km
New Line.SBT_19888 phases=4 bus1=BT377361.1.2.3.4 bus2=BT377461.1.2.3.4 linecode=73_4 length=0.02816 units=km
New Line.SBT_19727 phases=4 bus1=BT377461.1.2.3.4 bus2=BT377471.1.2.3.4 linecode=73_4 length=0.01746 units=km
New Line.SBT_19781 phases=4 bus1=ET1_1536.1.2.3.4 bus2=BT236731.1.2.3.4 linecode=58_4 length=0.05513 units=km
New Line.SBT_19782 phases=4 bus1=BT264341.1.2.3.4 bus2=BT264351.1.2.3.4 linecode=58_4 length=0.03015 units=km
New Line.SBT_2030 phases=4 bus1=BT264321.1.2.3.4 bus2=BT264331.1.2.3.4 linecode=58_4 length=0.03617 units=km
New Line.SBT_2210 phases=4 bus1=BT264331.1.2.3.4 bus2=BT264341.1.2.3.4 linecode=58_4 length=0.04022 units=km
New Line.SBT_19678 phases=4 bus1=BT236731.1.2.3.4 bus2=BT236741.1.2.3.4 linecode=58_4 length=0.01587 units=km
New Line.SBT_18226 phases=4 bus1=ET1_1536.1.2.3.4 bus2=BT236581.1.2.3.4 linecode=74_4 length=0.04169 units=km
New Line.SBT_34816 phases=4 bus1=BT805881.1.2.3.4 bus2=BT264321.1.2.3.4 linecode=65_4 length=0.00743 units=km
New Line.SBT_34817 phases=4 bus1=BT236741.1.2.3.4 bus2=BT805881.1.2.3.4 linecode=65_4 length=0.0157 units=km
New Line.SBT_34818 phases=4 bus1=BT805881.1.2.3.4 bus2=BT805891.1.2.3.4 linecode=74_4 length=0.03892 units=km
New Line.SBT_34819 phases=4 bus1=BT805891.1.2.3.4 bus2=BT805901.1.2.3.4 linecode=74_4 length=0.034 units=km
New Line.SBT_28533 phases=4 bus1=ET1_1536.1.2.3.4 bus2=BT236761.1.2.3.4 linecode=74_4 length=0.05925 units=km
New Line.SBT_2849 phases=4 bus1=BT274632.1.2.3.4 bus2=BT668732.1.2.3.4 linecode=73_4 length=0.05034 units=km
New Line.SBT_28964 phases=4 bus1=BT255431.1.2.3.4 bus2=BT255441.1.2.3.4 linecode=73_4 length=0.03132 units=km
New Line.SBT_32301 phases=4 bus1=BT778981.1.2.3.4 bus2=BT744911.1.2.3.4 linecode=74_4 length=0.01319 units=km
New Line.SBT_32302 phases=4 bus1=BT778981.1.2.3.4 bus2=BT778941.1.2.3.4 linecode=74_4 length=0.0117 units=km
New Line.SBT_32303 phases=4 bus1=BT778981.1.2.3.4 bus2=BT778951.1.2.3.4 linecode=74_4 length=0.01599 units=km
New Line.SBT_32304 phases=4 bus1=BT778951.1.2.3.4 bus2=BT778961.1.2.3.4 linecode=74_4 length=0.0359 units=km
New Line.SBT_32305 phases=4 bus1=BT778961.1.2.3.4 bus2=BT778971.1.2.3.4 linecode=74_4 length=0.03679 units=km
New Line.SBT_32306 phases=4 bus1=BT610331.1.2.3.4 bus2=BT778981.1.2.3.4 linecode=74_4 length=0.01998 units=km
New Line.SBT_33590 phases=4 bus1=BT792871.1.2.3.4 bus2=BT219291.1.2.3.4 linecode=74_4 length=0.0284 units=km
New Line.SBT_33591 phases=4 bus1=BT492131.1.2.3.4 bus2=BT792871.1.2.3.4 linecode=73_4 length=0.01842 units=km
New Line.SBT_3302 phases=4 bus1=BT668741.1.2.3.4 bus2=BT219341.1.2.3.4 linecode=73_4 length=0.03544 units=km
New Line.SBT_3303 phases=4 bus1=BT219321.1.2.3.4 bus2=BT292432.1.2.3.4 linecode=73_4 length=0.03479 units=km
New Line.SBT_3304 phases=4 bus1=BT255421.1.2.3.4 bus2=BT255431.1.2.3.4 linecode=73_4 length=0.02941 units=km
New Line.SBT_3315 phases=4 bus1=BT255421.1.2.3.4 bus2=BT255411.1.2.3.4 linecode=97_4 length=0.02915 units=km
New Line.SBT_3316 phases=4 bus1=BT255421.1.2.3.4 bus2=BT292421.1.2.3.4 linecode=73_4 length=0.01709 units=km
New Line.SBT_3318 phases=4 bus1=BT255441.1.2.3.4 bus2=BT255451.1.2.3.4 linecode=73_4 length=0.03008 units=km
New Line.SBT_3328 phases=4 bus1=BT200641.1.2.3.4 bus2=BT219281.1.2.3.4 linecode=73_4 length=0.02335 units=km
New Line.SBT_5079 phases=4 bus1=BT292421.1.2.3.4 bus2=BT595201.1.2.3.4 linecode=73_4 length=0.03068 units=km
New Line.SBT_14940 phases=4 bus1=BT255451.1.2.3.4 bus2=BT222281.1.2.3.4 linecode=73_4 length=0.00593 units=km
New Line.SBT_14941 phases=4 bus1=BT222281.1.2.3.4 bus2=BT292801.1.2.3.4 linecode=73_4 length=0.00332 units=km
New Line.SBT_15764 phases=4 bus1=BT492131.1.2.3.4 bus2=BT668741.1.2.3.4 linecode=73_4 length=0.01663 units=km
New Line.SBT_13704 phases=4 bus1=BT744911.1.2.3.4 bus2=BT274641.1.2.3.4 linecode=74_4 length=0.03689 units=km
New Line.SBT_20524 phases=4 bus1=BT274641.1.2.3.4 bus2=BT274632.1.2.3.4 linecode=75_4 length=0.03456 units=km
New Line.SBT_21902 phases=4 bus1=BT595201.1.2.3.4 bus2=BT595211.1.2.3.4 linecode=73_4 length=0.03324 units=km
New Line.SBT_21910 phases=4 bus1=BT595211.1.2.3.4 bus2=BT595221.1.2.3.4 linecode=73_4 length=0.025 units=km
New Line.SBT_21912 phases=4 bus1=BT595221.1.2.3.4 bus2=BT595231.1.2.3.4 linecode=73_4 length=0.02816 units=km
New Line.SBT_20396 phases=4 bus1=BT219351.1.2.3.4 bus2=BT255421.1.2.3.4 linecode=73_4 length=0.04052 units=km
New Line.SBT_20402 phases=4 bus1=BT255411.1.2.3.4 bus2=BT255401.1.2.3.4 linecode=97_4 length=0.02973 units=km
New Line.SBT_20403 phases=4 bus1=BT255401.1.2.3.4 bus2=BT263511.1.2.3.4 linecode=97_4 length=0.01703 units=km
New Line.SBT_19797 phases=4 bus1=ET1_1575.1.2.3.4 bus2=BT492131.1.2.3.4 linecode=73_4 length=0.02043 units=km
New Line.SBT_19896 phases=4 bus1=BT492131.1.2.3.4 bus2=BT219321.1.2.3.4 linecode=73_4 length=0.00324 units=km
New Line.SBT_2406 phases=4 bus1=ET1_1575.1.2.3.4 bus2=BT219351.1.2.3.4 linecode=73_4 length=0.02214 units=km
New Line.SBT_25894 phases=4 bus1=BT219291.1.2.3.4 bus2=BT610331.1.2.3.4 linecode=74_4 length=0.02544 units=km
New Line.SBT_26965 phases=4 bus1=BT222281.1.2.3.4 bus2=BT200641.1.2.3.4 linecode=73_4 length=0.00563 units=km
New Line.SBT_26966 phases=4 bus1=BT222281.1.2.3.4 bus2=BT292791.1.2.3.4 linecode=73_4 length=0.01094 units=km
New Line.SBT_20446 phases=4 bus1=BT273581.1.2.3.4 bus2=BT246972.1.2.3.4 linecode=75_4 length=0.02994 units=km
New Line.SBT_20447 phases=4 bus1=BT246972.1.2.3.4 bus2=BT246962.1.2.3.4 linecode=75_4 length=0.02031 units=km
New Line.SBT_20308 phases=4 bus1=BT356321.1.2.3.4 bus2=BT273591.1.2.3.4 linecode=75_4 length=0.00602 units=km
New Line.SBT_2043 phases=4 bus1=BT247011.1.2.3.4 bus2=BT278121.1.2.3.4 linecode=74_4 length=0.01983 units=km
New Line.SBT_2035 phases=4 bus1=ET1_1586.1.2.3.4 bus2=BT247011.1.2.3.4 linecode=74_4 length=0.01918 units=km
New Line.SBT_15800 phases=4 bus1=BT246981.1.2.3.4 bus2=BT269761.1.2.3.4 linecode=75_4 length=0.03114 units=km
New Line.SBT_19688 phases=4 bus1=ET1_1586.1.2.3.4 bus2=BT246991.1.2.3.4 linecode=74_4 length=0.04235 units=km
New Line.SBT_19689 phases=4 bus1=BT278121.1.2.3.4 bus2=BT278131.1.2.3.4 linecode=74_4 length=0.03357 units=km
New Line.SBT_3396 phases=4 bus1=BT246991.1.2.3.4 bus2=BT356321.1.2.3.4 linecode=75_4 length=0.02399 units=km
New Line.SBT_3397 phases=4 bus1=BT273591.1.2.3.4 bus2=BT273581.1.2.3.4 linecode=75_4 length=0.02532 units=km
New Line.SBT_31163 phases=4 bus1=BT273581.1.2.3.4 bus2=BT767011.1.2.3.4 linecode=74_4 length=0.01599 units=km
New Line.SBT_3141 phases=4 bus1=BT356321.1.2.3.4 bus2=BT246981.1.2.3.4 linecode=75_4 length=0.00421 units=km
New Line.SBT_3142 phases=4 bus1=BT356321.1.2.3.4 bus2=BT269732.1.2.3.4 linecode=75_4 length=0.02031 units=km
New Line.SBT_30403 phases=4 bus1=BT661991.1.2.3.4 bus2=BT282032.1.2.3.4 linecode=73_4 length=0.03064 units=km
New Line.SBT_19710 phases=4 bus1=BT282091.1.2.3.4 bus2=BT282082.1.2.3.4 linecode=97_4 length=0.02625 units=km
New Line.SBT_15747 phases=4 bus1=BT661991.1.2.3.4 bus2=BT282071.1.2.3.4 linecode=73_4 length=0.01924 units=km
New Line.SBT_15798 phases=4 bus1=BT661991.1.2.3.4 bus2=BT281361.1.2.3.4 linecode=75_4 length=0.0192 units=km
New Line.SBT_2222 phases=4 bus1=BT282071.1.2.3.4 bus2=BT282221.1.2.3.4 linecode=73_4 length=0.03491 units=km
New Line.SBT_2240 phases=4 bus1=ET1_1587.1.2.3.4 bus2=BT282091.1.2.3.4 linecode=97_4 length=0.03162 units=km
New Line.SBT_19792 phases=4 bus1=ET1_1587.1.2.3.4 bus2=BT282041.1.2.3.4 linecode=75_4 length=0.02563 units=km
New Line.SBT_27405 phases=4 bus1=BT282041.1.2.3.4 bus2=BT661991.1.2.3.4 linecode=75_4 length=0.00749 units=km
New Line.SBT_27430 phases=4 bus1=ET1_16.1.2.3.4 bus2=BT553331.1.2.3.4 linecode=58_4 length=0.03159 units=km
New Line.SBT_2388 phases=4 bus1=BT263451.1.2.3.4 bus2=BT262731.1.2.3.4 linecode=58_4 length=0.04152 units=km
New Line.SBT_2389 phases=4 bus1=BT262731.1.2.3.4 bus2=BT281871.1.2.3.4 linecode=58_4 length=0.03168 units=km
New Line.SBT_2390 phases=4 bus1=BT262701.1.2.3.4 bus2=BT262711.1.2.3.4 linecode=58_4 length=0.04223 units=km
New Line.SBT_2391 phases=4 bus1=BT263461.1.2.3.4 bus2=BT263471.1.2.3.4 linecode=58_4 length=0.04029 units=km
New Line.SBT_2396 phases=4 bus1=BT281871.1.2.3.4 bus2=BT281881.1.2.3.4 linecode=58_4 length=0.04126 units=km
New Line.SBT_2370 phases=4 bus1=BT263451.1.2.3.4 bus2=BT263461.1.2.3.4 linecode=58_4 length=0.03613 units=km
New Line.SBT_2356 phases=4 bus1=BT200823.1.2.3.4 bus2=BT200831.1.2.3.4 linecode=58_4 length=0.02314 units=km
New Line.SBT_2533 phases=4 bus1=BT553331.1.2.3.4 bus2=BT263451.1.2.3.4 linecode=58_4 length=0.00807 units=km
New Line.SBT_19889 phases=4 bus1=BT262711.1.2.3.4 bus2=BT262721.1.2.3.4 linecode=74_4 length=0.04838 units=km
New Line.SBT_19890 phases=4 bus1=BT263471.1.2.3.4 bus2=BT263481.1.2.3.4 linecode=58_4 length=0.03181 units=km
New Line.SBT_19891 phases=4 bus1=BT262721.1.2.3.4 bus2=BT262581.1.2.3.4 linecode=74_4 length=0.04131 units=km
New Line.SBT_19873 phases=4 bus1=BT263451.1.2.3.4 bus2=BT262701.1.2.3.4 linecode=58_4 length=0.01944 units=km
New Line.SBT_19960 phases=4 bus1=BT200823.1.2.3.4 bus2=BT288881.1.2.3.4 linecode=58_4 length=0.02293 units=km
New Line.SBT_19968 phases=4 bus1=BT200831.1.2.3.4 bus2=BT200842.1.2.3.4 linecode=58_4 length=0.02979 units=km
New Line.SBT_19969 phases=4 bus1=BT288881.1.2.3.4 bus2=BT262692.1.2.3.4 linecode=58_4 length=0.02435 units=km
New Line.SBT_19970 phases=4 bus1=BT200842.1.2.3.4 bus2=BT292403.1.2.3.4 linecode=58_4 length=0.03674 units=km
New Line.SBT_16523 phases=4 bus1=ET1_16.1.2.3.4 bus2=BT200823.1.2.3.4 linecode=97_4 length=0.01393 units=km
New Line.SBT_3017 phases=4 bus1=BT262591.1.2.3.4 bus2=BT262621.1.2.3.4 linecode=74_4 length=0.05014 units=km
New Line.SBT_3542 phases=4 bus1=BT262581.1.2.3.4 bus2=BT262591.1.2.3.4 linecode=74_4 length=0.03895 units=km
New Line.SBT_17604 phases=3 bus1=BT234001.1.2.4 bus2=BT732771.1.2.4 linecode=59_3 length=0.06597 units=km
New Line.SBT_19791 phases=4 bus1=ET1_1613.1.2.3.4 bus2=BT274711.1.2.3.4 linecode=75_4 length=0.04201 units=km
New Line.SBT_19801 phases=4 bus1=BT287621.1.2.3.4 bus2=BT233971.1.2.3.4 linecode=75_4 length=0.05197 units=km
New Line.SBT_19802 phases=3 bus1=BT287621.1.2.4 bus2=BT233981.1.2.4 linecode=44_3 length=0.02807 units=km
New Line.SBT_19803 phases=4 bus1=BT245941.1.2.3.4 bus2=BT245951.1.2.3.4 linecode=75_4 length=0.02927 units=km
New Line.SBT_2232 phases=4 bus1=ET1_1613.1.2.3.4 bus2=BT246001.1.2.3.4 linecode=74_4 length=0.05635 units=km
New Line.SBT_2233 phases=4 bus1=ET1_1613.1.2.3.4 bus2=BT296771.1.2.3.4 linecode=75_4 length=0.01237 units=km
New Line.SBT_2234 phases=4 bus1=BT296771.1.2.3.4 bus2=BT245931.1.2.3.4 linecode=75_4 length=0.03833 units=km
New Line.SBT_2235 phases=4 bus1=ET1_1613.1.2.3.4 bus2=BT246801.1.2.3.4 linecode=75_4 length=0.0423 units=km
New Line.SBT_2245 phases=4 bus1=BT245951.1.2.3.4 bus2=BT296781.1.2.3.4 linecode=75_4 length=0.05116 units=km
New Line.SBT_2258 phases=3 bus1=BT233981.1.2.4 bus2=BT233991.1.2.4 linecode=44_3 length=0.03302 units=km
New Line.SBT_2259 phases=3 bus1=BT233991.1.2.4 bus2=BT234001.1.2.4 linecode=44_3 length=0.03501 units=km
New Line.SBT_2412 phases=4 bus1=BT246801.1.2.3.4 bus2=BT287621.1.2.3.4 linecode=75_4 length=0.02209 units=km
New Line.SBT_2413 phases=4 bus1=BT245931.1.2.3.4 bus2=BT245941.1.2.3.4 linecode=75_4 length=0.04205 units=km
New Line.SBT_2415 phases=4 bus1=BT287601.1.2.3.4 bus2=BT327721.1.2.3.4 linecode=73_4 length=0.05162 units=km
New Line.SBT_2416 phases=4 bus1=BT202221.1.2.3.4 bus2=BT327701.1.2.3.4 linecode=73_4 length=0.0494 units=km
New Line.SBT_2417 phases=2 bus1=BT327701.1.4 bus2=BT327711.1.4 linecode=62_2 length=0.06756 units=km
New Line.SBT_2549 phases=4 bus1=BT287601.1.2.3.4 bus2=BT202221.1.2.3.4 linecode=73_4 length=0.07049 units=km
New Line.SBT_26520 phases=4 bus1=BT668711.1.2.3.4 bus2=BT614441.1.2.3.4 linecode=73_4 length=0.02813 units=km
New Line.SBT_27418 phases=4 bus1=BT668711.1.2.3.4 bus2=BT202201.1.2.3.4 linecode=97_4 length=0.00791 units=km
New Line.SBT_19899 phases=4 bus1=BT327721.1.2.3.4 bus2=BT327741.1.2.3.4 linecode=73_4 length=0.04565 units=km
New Line.SBT_19976 phases=4 bus1=BT327681.1.2.3.4 bus2=BT287601.1.2.3.4 linecode=73_4 length=0.05936 units=km
New Line.SBT_1783 phases=4 bus1=ET1_1665.1.2.3.4 bus2=BT327681.1.2.3.4 linecode=73_4 length=0.03982 units=km
New Line.SBT_17 phases=4 bus1=BT287611.1.2.3.4 bus2=BT202191.1.2.3.4 linecode=73_4 length=0.02921 units=km
New Line.SBT_15761 phases=4 bus1=BT668711.1.2.3.4 bus2=BT611422.1.2.3.4 linecode=97_4 length=0.00591 units=km
New Line.SBT_15762 phases=4 bus1=BT202181.1.2.3.4 bus2=BT668711.1.2.3.4 linecode=73_4 length=0.05369 units=km
New Line.SBT_16 phases=4 bus1=BT202191.1.2.3.4 bus2=BT202181.1.2.3.4 linecode=73_4 length=0.03124 units=km
New Line.SBT_14182 phases=4 bus1=ET1_1665.1.2.3.4 bus2=BT287611.1.2.3.4 linecode=73_4 length=0.04328 units=km
New Line.SBT_30382 phases=4 bus1=BT750581.1.2.3.4 bus2=BT760831.1.2.3.4 linecode=74_4 length=0.0591 units=km
New Line.SBT_29334 phases=4 bus1=BT202201.1.2.3.4 bus2=BT750581.1.2.3.4 linecode=74_4 length=0.0512 units=km
New Line.SBT_30077 phases=4 bus1=BT241141.1.2.3.4 bus2=BT757591.1.2.3.4 linecode=74_4 length=0.01547 units=km
New Line.SBT_32347 phases=4 bus1=BT779231.1.2.3.4 bus2=BT241101.1.2.3.4 linecode=74_4 length=0.03861 units=km
...
